
    (set-logic SLIA)
    (synth-fun f ((arg0 String)) String 
        (
            (Start String (ntString)) 
            (ntString String (";" " " "Price: " "$" "-" "." ":" ")" "(" arg0
                (str.++ ntString ntString) 
                (str.replace ntString ntString ntString) 
                (str.at ntString ntInt)
                (int.to.str ntInt)
                (ite ntBool ntString ntString)
                (str.substr ntString ntInt ntInt)
            )) 
            (ntInt Int (
                1 0 -1
                (+ ntInt ntInt)
                (- ntInt ntInt)
                (str.len ntString)
                (str.to.int ntString)
                (ite ntBool ntInt ntInt)
                (str.indexof ntString ntString ntInt)
            )) 
            (ntBool Bool (
                true false
                (= ntInt ntInt)
                (str.prefixof ntString ntString)
                (str.suffixof ntString ntString)
                (str.contains ntString ntString)
            ))
        )
    )
(constraint (= (f "HealthFirst Biotech (HFBI); 52-Week Range: $138.90 - $165.50") ""))
(constraint (= (f "CleanTech Energy Solutions (CTES); Current Price: $109.20; 52-Week Range: $98.40 - $116.80") "$109.20"))
(constraint (= (f "SmartCity Infrastructure (SCIN); Sector: Real Estate/Infrastructure; Current Price: $78.40; Market Cap: $9.6 billion; 52-Week Range: $72.10 - $85.90") "$78.40"))
(constraint (= (f "BlueSky Telecommunications (BSTC); Market Cap: $11.1 billion; 52-Week Range: $49.75 - $59.20; BlueSky is a leading provider of high-speed internet and digital communication services.") ""))
(constraint (= (f "GlobalFood Enterprises (GFE); 52-Week Range: $44.25 - $52.60") ""))
(constraint (= (f "GlobalTech Solutions (GLTS); Sector: Information Technology; Current Price: $215.60; Market Cap: $48.9 billion; 52-Week Range: $198.75 - $230.40") "$215.60"))
(constraint (= (f "AeroDynamics Inc. (AERO)") ""))
(constraint (= (f "BlueSky Telecommunications (BSTC); Sector: Telecommunications; Current Price: $54.90; 52-Week Range: $49.75 - $59.20; BlueSky is a leading provider of high-speed internet and digital communication services.") "$54.90"))
(constraint (= (f "SmartCity Infrastructure (SCIN); 52-Week Range: $72.10 - $85.90") ""))
(constraint (= (f "NanoTech Innovations (NTI); Sector: Nanotechnology; NanoTech develops cutting-edge nanomaterials for applications in electronics, healthcare, and renewable energy.") ""))
(constraint (= (f "EcoTech Industries (ECOI); Sector: Environmental Services; EcoTech specializes in waste management and recycling solutions, contributing to a cleaner environment.") ""))
(constraint (= (f "OceanFront Resorts (OFRS); Current Price: $127.80; 52-Week Range: $115.60 - $135.90; OceanFront owns and operates luxury resorts and hotels in prime coastal destinations worldwide.") "$127.80"))
(constraint (= (f "OceanFront Resorts (OFRS); Sector: Hospitality/Tourism; Market Cap: $8.7 billion; 52-Week Range: $115.60 - $135.90; OceanFront owns and operates luxury resorts and hotels in prime coastal destinations worldwide.") ""))
(constraint (= (f "AeroDynamics Inc. (AERO); Current Price: $182.50; AeroDynamics specializes in advanced aircraft design and propulsion systems for commercial and defense applications.") "$182.50"))
(constraint (= (f "UrbanWorks Development (URWD); Market Cap: $5.9 billion; UrbanWorks focuses on urban development projects including residential complexes, commercial spaces, and mixed-use properties.") ""))
(constraint (= (f "BlueWave Financial Services (BWFS); Current Price: $85.75; BlueWave offers a range of financial products including wealth management, insurance, and retirement planning services.") "$85.75"))
(constraint (= (f "HealthFirst Biotech (HFBI); Current Price: $152.30; 52-Week Range: $138.90 - $165.50; HealthFirst is dedicated to developing breakthrough therapies for rare diseases and genetic disorders.") "$152.30"))
(constraint (= (f "GreenEarth Energy (GREN); Current Price: $64.80; Market Cap: $5.8 billion; 52-Week Range: $52.15 - $72.90") "$64.80"))
(constraint (= (f "SmartCity Infrastructure (SCIN); 52-Week Range: $72.10 - $85.90; SmartCity specializes in developing sustainable urban infrastructure projects, including smart buildings and green spaces.") ""))
(constraint (= (f "UrbanWorks Development (URWD)") ""))
(constraint (= (f "EcoTech Industries (ECOI); Current Price: $42.90; 52-Week Range: $38.25 - $47.80; EcoTech specializes in waste management and recycling solutions, contributing to a cleaner environment.") "$42.90"))
(constraint (= (f "GlobalX Transport (GXT); Market Cap: $6.3 billion; 52-Week Range: $52.40 - $60.90") ""))
(constraint (= (f "FutureGen Robotics (FGRO); Sector: Robotics") ""))
(constraint (= (f "BioGenetix Pharmaceuticals (BGNX); Market Cap: $45.2 billion; 52-Week Range: $275.60 - $315.70; BioGenetix is a leading biopharmaceutical company focused on gene therapy and personalized medicine.") ""))
(constraint (= (f "BlueWave Financial Services (BWFS); Current Price: $85.75") "$85.75"))
(constraint (= (f "BioGenetix Pharmaceuticals (BGNX); Sector: Biotechnology; Market Cap: $45.2 billion; BioGenetix is a leading biopharmaceutical company focused on gene therapy and personalized medicine.") ""))
(constraint (= (f "BlueWave Financial Services (BWFS); Sector: Financial Services; Current Price: $85.75") "$85.75"))
(constraint (= (f "TechNova Inc. (TNVA); Sector: Technology; Current Price: $127.50; TechNova specializes in advanced AI solutions for healthcare and autonomous vehicles.") "$127.50"))
(constraint (= (f "UrbanWorks Development (URWD); Sector: Real Estate/Development; Market Cap: $5.9 billion; UrbanWorks focuses on urban development projects including residential complexes, commercial spaces, and mixed-use properties.") ""))
(constraint (= (f "WellnessRx Inc. (WRXI); Current Price: $88.75; WellnessRx specializes in holistic healthcare solutions, including nutritional supplements and wellness programs.") "$88.75"))
(constraint (= (f "TechNova Inc. (TNVA); Sector: Technology; 52-Week Range: $98.25 - $139.80") ""))
(constraint (= (f "NanoTech Innovations (NTI); Sector: Nanotechnology; NanoTech develops cutting-edge nanomaterials for applications in electronics, healthcare, and renewable energy.") ""))
(constraint (= (f "GlobalX Transport (GXT); Sector: Transportation; 52-Week Range: $52.40 - $60.90") ""))
(constraint (= (f "GreenEarth Energy (GREN); Sector: Renewable Energy; GreenEarth is a leading provider of solar energy solutions, with a focus on sustainable development projects in emerging markets.") ""))
(constraint (= (f "NanoTech Innovations (NTI); Sector: Nanotechnology; Market Cap: $6.5 billion; 52-Week Range: $70.10 - $82.50; NanoTech develops cutting-edge nanomaterials for applications in electronics, healthcare, and renewable energy.") ""))
(constraint (= (f "BioGenetix Pharmaceuticals (BGNX); Current Price: $298.40; Market Cap: $45.2 billion; 52-Week Range: $275.60 - $315.70") "$298.40"))
(constraint (= (f "DataGenius Technologies (DGNT); Sector: Information Technology; DataGenius is a leader in big data analytics and AI-driven insights for businesses across industries.") ""))
(constraint (= (f "DataGenius Technologies (DGNT); DataGenius is a leader in big data analytics and AI-driven insights for businesses across industries.") ""))
(constraint (= (f "BlueSky Telecommunications (BSTC); Sector: Telecommunications; Current Price: $54.90; Market Cap: $11.1 billion; BlueSky is a leading provider of high-speed internet and digital communication services.") "$54.90"))
(constraint (= (f "CleanTech Energy Solutions (CTES); Current Price: $109.20; 52-Week Range: $98.40 - $116.80") "$109.20"))
(constraint (= (f "Global Pharma Corp. (GLPH); Current Price: $189.20; Global Pharma is a multinational pharmaceutical company known for its innovative treatments in oncology and immunology.") "$189.20"))
(constraint (= (f "DataGenius Technologies (DGNT); Market Cap: $72.8 billion; 52-Week Range: $290.75 - $330.90") ""))
(constraint (= (f "GlobalFood Enterprises (GFE); Sector: Food & Beverage; Current Price: $48.90; 52-Week Range: $44.25 - $52.60; GlobalFood is a multinational food processing and distribution company, offering a diverse range of culinary products globally.") "$48.90"))
(constraint (= (f "GlobalTech Solutions (GLTS); Current Price: $215.60; GlobalTech provides cutting-edge software and cloud services to businesses worldwide, enhancing digital transformation strategies.") "$215.60"))
(constraint (= (f "Global Pharma Corp. (GLPH); Sector: Healthcare; Market Cap: $28.6 billion; Global Pharma is a multinational pharmaceutical company known for its innovative treatments in oncology and immunology.") ""))
(constraint (= (f "CleanTech Energy Solutions (CTES); Current Price: $109.20; 52-Week Range: $98.40 - $116.80; CleanTech specializes in renewable energy solutions such as wind farms, solar arrays, and energy storage systems.") "$109.20"))
(constraint (= (f "AeroDynamics Inc. (AERO); Sector: Aerospace; Current Price: $182.50; Market Cap: $15.9 billion") "$182.50"))
(constraint (= (f "GreenEarth Energy (GREN); Market Cap: $5.8 billion; 52-Week Range: $52.15 - $72.90") ""))
(constraint (= (f "WellnessRx Inc. (WRXI); Market Cap: $9.3 billion; 52-Week Range: $82.60 - $94.40") ""))
(constraint (= (f "TechNova Inc. (TNVA); Current Price: $127.50; 52-Week Range: $98.25 - $139.80; TechNova specializes in advanced AI solutions for healthcare and autonomous vehicles.") "$127.50"))
(check-synth)
