
    (set-logic SLIA)
    (synth-fun f ((arg0 String)) String 
        (
            (Start String (ntString)) 
            (ntString String (" " "Tech" "Global" "." ")" "(" arg0
                (str.++ ntString ntString) 
                (str.replace ntString ntString ntString) 
                (str.at ntString ntInt)
                (int.to.str ntInt)
                (ite ntBool ntString ntString)
                (str.substr ntString ntInt ntInt)
            )) 
            (ntInt Int (
                1 0 -1
                (+ ntInt ntInt)
                (- ntInt ntInt)
                (str.len ntString)
                (str.to.int ntString)
                (ite ntBool ntInt ntInt)
                (str.indexof ntString ntString ntInt)
            )) 
            (ntBool Bool (
                true false
                (= ntInt ntInt)
                (str.prefixof ntString ntString)
                (str.suffixof ntString ntString)
                (str.contains ntString ntString)
            ))
        )
    )
(constraint (= (f "AeroDynamics Inc. (AERO)") "AERO"))
(constraint (= (f "DataGenius Technologies") "DGT"))
(constraint (= (f "AeroDynamics Inc. (AERO)") "AERO"))
(constraint (= (f "BlueWave Financial Services (BWFS)") "BWFS"))
(constraint (= (f "GlobalTech Solutions (GLTS)") "GLTS"))
(constraint (= (f "FutureGen Robotics") "FGR"))
(constraint (= (f "BioGenetix Pharmaceuticals") "BGP"))
(constraint (= (f "OceanFront Resorts") "OFR"))
(constraint (= (f "Global Pharma Corp. (GLPH)") "GLPH"))
(constraint (= (f "GreenEarth Energy (GREN)") "GREN"))
(constraint (= (f "GlobalX Transport") "GXT"))
(constraint (= (f "BlueSky Telecommunications") "BST"))
(constraint (= (f "NanoTech Innovations") "NTI"))
(constraint (= (f "DataGenius Technologies (DGNT)") "DGNT"))
(constraint (= (f "OceanFront Resorts") "OFR"))
(constraint (= (f "BlueSky Telecommunications (BSTC)") "BSTC"))
(constraint (= (f "GlobalFood Enterprises") "GFE"))
(constraint (= (f "UrbanWorks Development (URWD)") "URWD"))
(constraint (= (f "HealthFirst Biotech (HFBI)") "HFBI"))
(constraint (= (f "CleanTech Energy Solutions (CTES)") "CTES"))
(constraint (= (f "BioGenetix Pharmaceuticals (BGNX)") "BGNX"))
(constraint (= (f "FutureGen Robotics (FGRO)") "FGRO"))
(constraint (= (f "BlueWave Financial Services (BWFS)") "BWFS"))
(constraint (= (f "GlobalX Transport") "GXT"))
(constraint (= (f "SmartCity Infrastructure (SCIN)") "SCIN"))
(constraint (= (f "TechNova Inc.") "TNI"))
(constraint (= (f "EcoTech Industries") "ETI"))
(constraint (= (f "HealthFirst Biotech") "HFB"))
(constraint (= (f "EcoTech Industries") "ETI"))
(constraint (= (f "WellnessRx Inc. (WRXI)") "WRXI"))
(constraint (= (f "Global Pharma Corp. (GLPH)") "GLPH"))
(constraint (= (f "CleanTech Energy Solutions") "CTES"))
(constraint (= (f "WellnessRx Inc.") "WRI"))
(constraint (= (f "GlobalTech Solutions (GLTS)") "GLTS"))
(check-synth)
