
    (set-logic SLIA)
    (synth-fun f ((arg0 String)) String 
        (
            (Start String (ntString)) 
            (ntString String (";" " " "Price: " "$" "-" "." ":" arg0
                (str.++ ntString ntString) 
                (str.replace ntString ntString ntString) 
                (str.at ntString ntInt)
                (int.to.str ntInt)
                (ite ntBool ntString ntString)
                (str.substr ntString ntInt ntInt)
            )) 
            (ntInt Int (
                1 0 -1
                (+ ntInt ntInt)
                (- ntInt ntInt)
                (str.len ntString)
                (str.to.int ntString)
                (ite ntBool ntInt ntInt)
                (str.indexof ntString ntString ntInt)
            )) 
            (ntBool Bool (
                true false
                (= ntInt ntInt)
                (str.prefixof ntString ntString)
                (str.suffixof ntString ntString)
                (str.contains ntString ntString)
            ))
        )
    )
(constraint (= (f "AeroDynamics Inc. (AERO); Current Price: $182.50; Market Cap: $15.9 billion; 52-Week Range: $170.20 - $195.80; AeroDynamics specializes in advanced aircraft design and propulsion systems for commercial and defense applications.") "$182.50"))
(constraint (= (f "GlobalTech Solutions (GLTS); Sector: Information Technology; Current Price: $215.60; 52-Week Range: $198.75 - $230.40; GlobalTech provides cutting-edge software and cloud services to businesses worldwide, enhancing digital transformation strategies.") "$215.60"))
(constraint (= (f "Global Pharma Corp. (GLPH); Sector: Healthcare; Market Cap: $28.6 billion; 52-Week Range: $165.75 - $205.40; Global Pharma is a multinational pharmaceutical company known for its innovative treatments in oncology and immunology.") ""))
(constraint (= (f "TechNova Inc. (TNVA); Current Price: $127.50; 52-Week Range: $98.25 - $139.80; TechNova specializes in advanced AI solutions for healthcare and autonomous vehicles.") "$127.50"))
(constraint (= (f "TechNova Inc. (TNVA); Sector: Technology; Current Price: $127.50; Market Cap: $12.3 billion; 52-Week Range: $98.25 - $139.80; TechNova specializes in advanced AI solutions for healthcare and autonomous vehicles.") "$127.50"))
(constraint (= (f "FutureGen Robotics (FGRO); Sector: Robotics; Current Price: $109.85; Market Cap: $11.4 billion; 52-Week Range: $96.50 - $118.20; FutureGen is at the forefront of robotic automation solutions for industries such as manufacturing, logistics, and healthcare.") "$109.85"))
(constraint (= (f "EcoTech Industries (ECOI); Sector: Environmental Services; 52-Week Range: $38.25 - $47.80; EcoTech specializes in waste management and recycling solutions, contributing to a cleaner environment.") ""))
(constraint (= (f "BioGenetix Pharmaceuticals (BGNX); Sector: Biotechnology; 52-Week Range: $275.60 - $315.70; BioGenetix is a leading biopharmaceutical company focused on gene therapy and personalized medicine.") ""))
(constraint (= (f "BlueSky Telecommunications (BSTC); Sector: Telecommunications; Current Price: $54.90; Market Cap: $11.1 billion; 52-Week Range: $49.75 - $59.20; BlueSky is a leading provider of high-speed internet and digital communication services.") "$54.90"))
(constraint (= (f "GlobalTech Solutions (GLTS); Sector: Information Technology; Market Cap: $48.9 billion; 52-Week Range: $198.75 - $230.40; GlobalTech provides cutting-edge software and cloud services to businesses worldwide, enhancing digital transformation strategies.") ""))
(constraint (= (f "GlobalX Transport (GXT); Market Cap: $6.3 billion; 52-Week Range: $52.40 - $60.90; GlobalX operates a diversified transportation network, offering logistics services, shipping, and passenger transport solutions.") ""))
(constraint (= (f "DataGenius Technologies (DGNT); Current Price: $312.60; 52-Week Range: $290.75 - $330.90; DataGenius is a leader in big data analytics and AI-driven insights for businesses across industries.") "$312.60"))
(constraint (= (f "GlobalFood Enterprises (GFE); Sector: Food & Beverage; 52-Week Range: $44.25 - $52.60; GlobalFood is a multinational food processing and distribution company, offering a diverse range of culinary products globally.") ""))
(constraint (= (f "OceanFront Resorts (OFRS); Current Price: $127.80; 52-Week Range: $115.60 - $135.90; OceanFront owns and operates luxury resorts and hotels in prime coastal destinations worldwide.") "$127.80"))
(constraint (= (f "CleanTech Energy Solutions (CTES); Current Price: $109.20; 52-Week Range: $98.40 - $116.80; CleanTech specializes in renewable energy solutions such as wind farms, solar arrays, and energy storage systems.") "$109.20"))
(constraint (= (f "BlueSky Telecommunications (BSTC); Market Cap: $11.1 billion; 52-Week Range: $49.75 - $59.20; BlueSky is a leading provider of high-speed internet and digital communication services.") ""))
(constraint (= (f "UrbanWorks Development (URWD); Current Price: $62.40; 52-Week Range: $58.75 - $67.20; UrbanWorks focuses on urban development projects including residential complexes, commercial spaces, and mixed-use properties.") "$62.40"))
(constraint (= (f "OceanFront Resorts (OFRS); 52-Week Range: $115.60 - $135.90; OceanFront owns and operates luxury resorts and hotels in prime coastal destinations worldwide.") ""))
(constraint (= (f "BioGenetix Pharmaceuticals (BGNX); Sector: Biotechnology; Market Cap: $45.2 billion; 52-Week Range: $275.60 - $315.70; BioGenetix is a leading biopharmaceutical company focused on gene therapy and personalized medicine.") ""))
(constraint (= (f "EcoTech Industries (ECOI); Current Price: $42.90; 52-Week Range: $38.25 - $47.80; EcoTech specializes in waste management and recycling solutions, contributing to a cleaner environment.") "$42.90"))
(constraint (= (f "GreenEarth Energy (GREN); Sector: Renewable Energy; Current Price: $64.80; 52-Week Range: $52.15 - $72.90; GreenEarth is a leading provider of solar energy solutions, with a focus on sustainable development projects in emerging markets.") "$64.80"))
(constraint (= (f "WellnessRx Inc. (WRXI); Sector: Healthcare/Wellness; Current Price: $88.75; Market Cap: $9.3 billion; 52-Week Range: $82.60 - $94.40; WellnessRx specializes in holistic healthcare solutions, including nutritional supplements and wellness programs.") "$88.75"))
(constraint (= (f "FutureGen Robotics (FGRO); Sector: Robotics; Current Price: $109.85; 52-Week Range: $96.50 - $118.20; FutureGen is at the forefront of robotic automation solutions for industries such as manufacturing, logistics, and healthcare.") "$109.85"))
(constraint (= (f "Global Pharma Corp. (GLPH); Sector: Healthcare; 52-Week Range: $165.75 - $205.40; Global Pharma is a multinational pharmaceutical company known for its innovative treatments in oncology and immunology.") ""))
(constraint (= (f "TechNova Inc. (TNVA); Sector: Technology; Market Cap: $12.3 billion; 52-Week Range: $98.25 - $139.80; TechNova specializes in advanced AI solutions for healthcare and autonomous vehicles.") ""))
(constraint (= (f "GlobalX Transport (GXT); Current Price: $56.75; Market Cap: $6.3 billion; 52-Week Range: $52.40 - $60.90; GlobalX operates a diversified transportation network, offering logistics services, shipping, and passenger transport solutions.") "$56.75"))
(constraint (= (f "CleanTech Energy Solutions (CTES); Sector: Clean Energy; Market Cap: $14.6 billion; 52-Week Range: $98.40 - $116.80; CleanTech specializes in renewable energy solutions such as wind farms, solar arrays, and energy storage systems.") ""))
(constraint (= (f "OceanFront Resorts (OFRS); Sector: Hospitality/Tourism; Current Price: $127.80; 52-Week Range: $115.60 - $135.90; OceanFront owns and operates luxury resorts and hotels in prime coastal destinations worldwide.") "$127.80"))
(constraint (= (f "AeroDynamics Inc. (AERO); Sector: Aerospace; Current Price: $182.50; 52-Week Range: $170.20 - $195.80; AeroDynamics specializes in advanced aircraft design and propulsion systems for commercial and defense applications.") "$182.50"))
(constraint (= (f "CleanTech Energy Solutions (CTES); Current Price: $109.20; 52-Week Range: $98.40 - $116.80; CleanTech specializes in renewable energy solutions such as wind farms, solar arrays, and energy storage systems.") "$109.20"))
(constraint (= (f "Global Pharma Corp. (GLPH); Current Price: $189.20; Market Cap: $28.6 billion; 52-Week Range: $165.75 - $205.40; Global Pharma is a multinational pharmaceutical company known for its innovative treatments in oncology and immunology.") "$189.20"))
(constraint (= (f "BlueWave Financial Services (BWFS); Current Price: $85.75; Market Cap: $7.2 billion; 52-Week Range: $78.40 - $93.60; BlueWave offers a range of financial products including wealth management, insurance, and retirement planning services.") "$85.75"))
(constraint (= (f "GlobalX Transport (GXT); 52-Week Range: $52.40 - $60.90; GlobalX operates a diversified transportation network, offering logistics services, shipping, and passenger transport solutions.") ""))
(constraint (= (f "FutureGen Robotics (FGRO); Sector: Robotics; Current Price: $109.85; Market Cap: $11.4 billion; 52-Week Range: $96.50 - $118.20; FutureGen is at the forefront of robotic automation solutions for industries such as manufacturing, logistics, and healthcare.") "$109.85"))
(constraint (= (f "NanoTech Innovations (NTI); Current Price: $76.20; Market Cap: $6.5 billion; 52-Week Range: $70.10 - $82.50; NanoTech develops cutting-edge nanomaterials for applications in electronics, healthcare, and renewable energy.") "$76.20"))
(constraint (= (f "BioGenetix Pharmaceuticals (BGNX); Sector: Biotechnology; Current Price: $298.40; 52-Week Range: $275.60 - $315.70; BioGenetix is a leading biopharmaceutical company focused on gene therapy and personalized medicine.") "$298.40"))
(constraint (= (f "HealthFirst Biotech (HFBI); Current Price: $152.30; 52-Week Range: $138.90 - $165.50; HealthFirst is dedicated to developing breakthrough therapies for rare diseases and genetic disorders.") "$152.30"))
(constraint (= (f "SmartCity Infrastructure (SCIN); Sector: Real Estate/Infrastructure; Current Price: $78.40; 52-Week Range: $72.10 - $85.90; SmartCity specializes in developing sustainable urban infrastructure projects, including smart buildings and green spaces.") "$78.40"))
(constraint (= (f "HealthFirst Biotech (HFBI); Current Price: $152.30; Market Cap: $16.7 billion; 52-Week Range: $138.90 - $165.50; HealthFirst is dedicated to developing breakthrough therapies for rare diseases and genetic disorders.") "$152.30"))
(constraint (= (f "DataGenius Technologies (DGNT); Sector: Information Technology; 52-Week Range: $290.75 - $330.90; DataGenius is a leader in big data analytics and AI-driven insights for businesses across industries.") ""))
(constraint (= (f "WellnessRx Inc. (WRXI); Current Price: $88.75; Market Cap: $9.3 billion; 52-Week Range: $82.60 - $94.40; WellnessRx specializes in holistic healthcare solutions, including nutritional supplements and wellness programs.") "$88.75"))
(constraint (= (f "NanoTech Innovations (NTI); Sector: Nanotechnology; 52-Week Range: $70.10 - $82.50; NanoTech develops cutting-edge nanomaterials for applications in electronics, healthcare, and renewable energy.") ""))
(constraint (= (f "BlueWave Financial Services (BWFS); Current Price: $85.75; 52-Week Range: $78.40 - $93.60; BlueWave offers a range of financial products including wealth management, insurance, and retirement planning services.") "$85.75"))
(constraint (= (f "BlueSky Telecommunications (BSTC); Sector: Telecommunications; Current Price: $54.90; 52-Week Range: $49.75 - $59.20; BlueSky is a leading provider of high-speed internet and digital communication services.") "$54.90"))
(constraint (= (f "UrbanWorks Development (URWD); Current Price: $62.40; 52-Week Range: $58.75 - $67.20; UrbanWorks focuses on urban development projects including residential complexes, commercial spaces, and mixed-use properties.") "$62.40"))
(constraint (= (f "SmartCity Infrastructure (SCIN); Sector: Real Estate/Infrastructure; Market Cap: $9.6 billion; 52-Week Range: $72.10 - $85.90; SmartCity specializes in developing sustainable urban infrastructure projects, including smart buildings and green spaces.") ""))
(constraint (= (f "SmartCity Infrastructure (SCIN); Sector: Real Estate/Infrastructure; Current Price: $78.40; 52-Week Range: $72.10 - $85.90; SmartCity specializes in developing sustainable urban infrastructure projects, including smart buildings and green spaces.") "$78.40"))
(constraint (= (f "GreenEarth Energy (GREN); Sector: Renewable Energy; Market Cap: $5.8 billion; 52-Week Range: $52.15 - $72.90; GreenEarth is a leading provider of solar energy solutions, with a focus on sustainable development projects in emerging markets.") ""))
(constraint (= (f "BlueWave Financial Services (BWFS); Current Price: $85.75; 52-Week Range: $78.40 - $93.60; BlueWave offers a range of financial products including wealth management, insurance, and retirement planning services.") "$85.75"))
(constraint (= (f "NanoTech Innovations (NTI); Current Price: $76.20; Market Cap: $6.5 billion; 52-Week Range: $70.10 - $82.50; NanoTech develops cutting-edge nanomaterials for applications in electronics, healthcare, and renewable energy.") "$76.20"))
(check-synth)
